     5
 geometry
 C                     0.00000000     0.00000000     0.00000000
 H                    -0.70850000    -0.80890000    -0.19120000
 H                    -0.38440000     0.92910000    -0.42650000
 H                     0.13200000     0.12120000     1.07740000
 H                     0.96090000    -0.24140000    -0.45970000
